Slack Bus analysis 2 modified/Slack Bus analysis 2 modified/14 BUS system/ieee14 Bus system for single slack bus.txt
                                PTI INTERACTIVE POWER SYSTEM SIMULATOR--PSS(R)E Xplore FRI, APR 22 2016   0:00
                         08/19/93 UW ARCHIVE           100.0  1962 W IEEE 14 BUS TES     %MVA FOR TRANSFORMERS
                                                                                         %MVA FOR NON-TRANSFORMER BRANCHES

X------- FROM BUS ------X AREA  VOLT            GEN    LOAD    SHUNT  X---------- TO BUS ----------X                     TRANSFORMER            RATING
  BUS# X-- NAME --X BASKV ZONE  PU/KV  ANGLE  MW/MVAR MW/MVAR MW/MVAR   BUS# X-- NAME --X BASKV AREA CKT   MW    MVAR   RATIO   ANGLE   AMPS   %  SET A

     1 BUS 1       138.00    1 1.0600    0.0   209.6      0.0     0.0 ---------------------------------------------------------------------------------
                             1 146.28          -11.7L     0.0     0.0      2 BUS 2       138.00    1  1   137.8  -15.8                   547
                                                                           5 BUS 5       138.00    1  1    71.8    4.2                   284
     2 BUS 2       138.00    1 1.0450   -4.4    40.0      0.0     0.0 ---------------------------------------------------------------------------------
                             1 144.21           22.4R     0.0     0.0      1 BUS 1       138.00    1  1  -134.5   20.1                   544
                                                                           3 BUS 3       138.00    1  1    73.8    3.5                   296
                                                                           4 BUS 4       138.00    1  1    57.4   -1.8                   230
                                                                           5 BUS 5       138.00    1  1    43.2    0.7                   173
     3 BUS 3       138.00    1 1.0100  -12.2     0.0     94.2     0.0 ---------------------------------------------------------------------------------
                             1 139.38           25.0R    19.0     0.0      2 BUS 2       138.00    1  1   -71.5    1.8                   296
                                                                           4 BUS 4       138.00    1  1   -22.7    4.2                    96
     4 BUS 4       138.00    1 1.0177   -9.8     0.0     47.8     0.0 ---------------------------------------------------------------------------------
                             1 140.44            0.0     -3.9     0.0      2 BUS 2       138.00    1  1   -55.7    3.6                   229
                                                                           3 BUS 3       138.00    1  1    23.1   -4.6                    97
                                                                           5 BUS 5       138.00    1  1   -59.5   15.1                   252
                                                                           7 BUS 7       138.00    1  1    28.1   -9.7 0.978LK           122
                                                                           9 BUS 9       138.00    1  1    16.1   -0.4 0.969LK            66
     5 BUS 5       138.00    1 1.0196   -8.3     0.0      7.6     0.0 ---------------------------------------------------------------------------------
                             1 140.70            0.0      1.6     0.0      1 BUS 1       138.00    1  1   -69.3    0.8                   284
                                                                           2 BUS 2       138.00    1  1   -42.3   -1.4                   174
                                                                           4 BUS 4       138.00    1  1    60.0  -13.6                   252
                                                                           6 BUS 6       138.00    1  1    44.0   12.5 0.932LK           188
     6 BUS 6       138.00    1 1.0700  -13.8     0.0     11.2     0.0 ---------------------------------------------------------------------------------
                             1 147.66           12.7R     7.5     0.0      5 BUS 5       138.00    1  1   -44.0   -8.1 1.000UN           175
                                                                          11 BUS 11      138.00    1  1     7.3    3.6                    32
                                                                          12 BUS 12      138.00    1  1     7.8    2.5                    32
                                                                          13 BUS 13      138.00    1  1    17.7    7.2                    75
     7 BUS 7       138.00    1 1.0615  -12.9     0.0      0.0     0.0 ---------------------------------------------------------------------------------
                             1 146.49            0.0      0.0     0.0      4 BUS 4       138.00    1  1   -28.1   11.4 1.000UN           120
                                                                           8 BUS 8       138.00    1  1     0.0  -17.2                    68
                                                                           9 BUS 9       138.00    1  1    28.1    5.8                   113
     8 BUS 8       138.00    1 1.0900  -12.9     0.0      0.0     0.0 ---------------------------------------------------------------------------------
                             1 150.42           17.6R     0.0     0.0      7 BUS 7       138.00    1  1    -0.0   17.6                    68

     9 BUS 9       138.00    1 1.0560  -14.4     0.0     29.5     0.0 ---------------------------------------------------------------------------------
                             1 145.73            0.0     16.6   -21.2      4 BUS 4       138.00    1  1   -16.1    1.7 1.000UN            64
                                                                           7 BUS 7       138.00    1  1   -28.1   -5.0                   113
                                                                          10 BUS 10      138.00    1  1     5.3    4.2                    27
                                                                          14 BUS 14      138.00    1  1     9.5    3.6                    40
    10 BUS 10      138.00    1 1.0510  -14.6     0.0      9.0     0.0 ---------------------------------------------------------------------------------
                             1 145.04            0.0      5.8     0.0      9 BUS 9       138.00    1  1    -5.3   -4.2                    27
                                                                          11 BUS 11      138.00    1  1    -3.7   -1.6                    16
    11 BUS 11      138.00    1 1.0569  -14.3     0.0      3.5     0.0 ---------------------------------------------------------------------------------
                             1 145.86            0.0      1.8     0.0      6 BUS 6       138.00    1  1    -7.2   -3.5                    32
                                                                          10 BUS 10      138.00    1  1     3.7    1.7                    16
    12 BUS 12      138.00    1 1.0552  -14.6     0.0      6.1     0.0 ---------------------------------------------------------------------------------
                             1 145.62            0.0      1.6     0.0      6 BUS 6       138.00    1  1    -7.7   -2.4                    32
                                                                          13 BUS 13      138.00    1  1     1.6    0.8                     7
    13 BUS 13      138.00    1 1.0504  -14.7     0.0     13.5     0.0 ---------------------------------------------------------------------------------
                             1 144.95            0.0      5.8     0.0      6 BUS 6       138.00    1  1   -17.5   -6.8                    75
                                                                          12 BUS 12      138.00    1  1    -1.6   -0.8                     7
                                                                          14 BUS 14      138.00    1  1     5.6    1.8                    23                                PTI INTERACTIVE POWER SYSTEM SIMULATOR--PSS(R)E Xplore FRI, APR 22 2016   0:00
                         08/19/93 UW ARCHIVE           100.0  1962 W IEEE 14 BUS TES     %MVA FOR TRANSFORMERS
                                                                                         %MVA FOR NON-TRANSFORMER BRANCHES

X------- FROM BUS ------X AREA  VOLT            GEN    LOAD    SHUNT  X---------- TO BUS ----------X                     TRANSFORMER            RATING
  BUS# X-- NAME --X BASKV ZONE  PU/KV  ANGLE  MW/MVAR MW/MVAR MW/MVAR   BUS# X-- NAME --X BASKV AREA CKT   MW    MVAR   RATIO   ANGLE   AMPS   %  SET A

    14 BUS 14      138.00    1 1.0356  -15.6     0.0     14.9     0.0 ---------------------------------------------------------------------------------
                             1 142.91            0.0      5.0     0.0      9 BUS 9       138.00    1  1    -9.4   -3.3                    40
                                                                          13 BUS 13      138.00    1  1    -5.5   -1.7                    23                                PTI INTERACTIVE POWER SYSTEM SIMULATOR--PSS(R)E Xplore FRI, APR 22 2016   0:00
                         08/19/93 UW ARCHIVE           100.0  1962 W IEEE 14 BUS TES     %MVA FOR TRANSFORMERS
                                                                                         %MVA FOR NON-TRANSFORMER BRANCHES

X------- FROM BUS ------X AREA  VOLT            GEN    LOAD    SHUNT  X---------- TO BUS ----------X                     TRANSFORMER            RATING
  BUS# X-- NAME --X BASKV ZONE  PU/KV  ANGLE  MW/MVAR MW/MVAR MW/MVAR   BUS# X-- NAME --X BASKV AREA CKT   MW    MVAR   RATIO   ANGLE   AMPS   %  SET A

     1 BUS 1       138.00    1 1.0600    0.0   209.6      0.0     0.0 ---------------------------------------------------------------------------------
                             1 146.28          -11.7L     0.0     0.0      2 BUS 2       138.00    1  1   137.8  -15.8                   547
                                                                           5 BUS 5       138.00    1  1    71.8    4.2                   284
     2 BUS 2       138.00    1 1.0450   -4.4    40.0      0.0     0.0 ---------------------------------------------------------------------------------
                             1 144.21           22.4R     0.0     0.0      1 BUS 1       138.00    1  1  -134.5   20.1                   544
                                                                           3 BUS 3       138.00    1  1    73.8    3.5                   296
                                                                           4 BUS 4       138.00    1  1    57.4   -1.8                   230
                                                                           5 BUS 5       138.00    1  1    43.2    0.7                   173
     3 BUS 3       138.00    1 1.0100  -12.2     0.0     94.2     0.0 ---------------------------------------------------------------------------------
                             1 139.38           25.0R    19.0     0.0      2 BUS 2       138.00    1  1   -71.5    1.8                   296
                                                                           4 BUS 4       138.00    1  1   -22.7    4.2                    96
     4 BUS 4       138.00    1 1.0177   -9.8     0.0     47.8     0.0 ---------------------------------------------------------------------------------
                             1 140.44            0.0     -3.9     0.0      2 BUS 2       138.00    1  1   -55.7    3.6                   229
                                                                           3 BUS 3       138.00    1  1    23.1   -4.6                    97
                                                                           5 BUS 5       138.00    1  1   -59.5   15.1                   252
                                                                           7 BUS 7       138.00    1  1    28.1   -9.7 0.978LK           122
                                                                           9 BUS 9       138.00    1  1    16.1   -0.4 0.969LK            66
     5 BUS 5       138.00    1 1.0196   -8.3     0.0      7.6     0.0 ---------------------------------------------------------------------------------
                             1 140.70            0.0      1.6     0.0      1 BUS 1       138.00    1  1   -69.3    0.8                   284
                                                                           2 BUS 2       138.00    1  1   -42.3   -1.4                   174
                                                                           4 BUS 4       138.00    1  1    60.0  -13.6                   252
                                                                           6 BUS 6       138.00    1  1    44.0   12.5 0.932LK           188
     6 BUS 6       138.00    1 1.0700  -13.8     0.0     11.2     0.0 ---------------------------------------------------------------------------------
                             1 147.66           12.7R     7.5     0.0      5 BUS 5       138.00    1  1   -44.0   -8.1 1.000UN           175
                                                                          11 BUS 11      138.00    1  1     7.3    3.6                    32
                                                                          12 BUS 12      138.00    1  1     7.8    2.5                    32
                                                                          13 BUS 13      138.00    1  1    17.7    7.2                    75
     7 BUS 7       138.00    1 1.0615  -12.9     0.0      0.0     0.0 ---------------------------------------------------------------------------------
                             1 146.49            0.0      0.0     0.0      4 BUS 4       138.00    1  1   -28.1   11.4 1.000UN           120
                                                                           8 BUS 8       138.00    1  1     0.0  -17.2                    68
                                                                           9 BUS 9       138.00    1  1    28.1    5.8                   113
     8 BUS 8       138.00    1 1.0900  -12.9     0.0      0.0     0.0 ---------------------------------------------------------------------------------
                             1 150.42           17.6R     0.0     0.0      7 BUS 7       138.00    1  1    -0.0   17.6                    68

     9 BUS 9       138.00    1 1.0560  -14.4     0.0     29.5     0.0 ---------------------------------------------------------------------------------
                             1 145.73            0.0     16.6   -21.2      4 BUS 4       138.00    1  1   -16.1    1.7 1.000UN            64
                                                                           7 BUS 7       138.00    1  1   -28.1   -5.0                   113
                                                                          10 BUS 10      138.00    1  1     5.3    4.2                    27
                                                                          14 BUS 14      138.00    1  1     9.5    3.6                    40
    10 BUS 10      138.00    1 1.0510  -14.6     0.0      9.0     0.0 ---------------------------------------------------------------------------------
                             1 145.04            0.0      5.8     0.0      9 BUS 9       138.00    1  1    -5.3   -4.2                    27
                                                                          11 BUS 11      138.00    1  1    -3.7   -1.6                    16
    11 BUS 11      138.00    1 1.0569  -14.3     0.0      3.5     0.0 ---------------------------------------------------------------------------------
                             1 145.86            0.0      1.8     0.0      6 BUS 6       138.00    1  1    -7.2   -3.5                    32
                                                                          10 BUS 10      138.00    1  1     3.7    1.7                    16
    12 BUS 12      138.00    1 1.0552  -14.6     0.0      6.1     0.0 ---------------------------------------------------------------------------------
                             1 145.62            0.0      1.6     0.0      6 BUS 6       138.00    1  1    -7.7   -2.4                    32
                                                                          13 BUS 13      138.00    1  1     1.6    0.8                     7
    13 BUS 13      138.00    1 1.0504  -14.7     0.0     13.5     0.0 ---------------------------------------------------------------------------------
                             1 144.95            0.0      5.8     0.0      6 BUS 6       138.00    1  1   -17.5   -6.8                    75
                                                                          12 BUS 12      138.00    1  1    -1.6   -0.8                     7
                                                                          14 BUS 14      138.00    1  1     5.6    1.8                    23                                PTI INTERACTIVE POWER SYSTEM SIMULATOR--PSS(R)E Xplore FRI, APR 22 2016   0:00
                         08/19/93 UW ARCHIVE           100.0  1962 W IEEE 14 BUS TES     %MVA FOR TRANSFORMERS
                                                                                         %MVA FOR NON-TRANSFORMER BRANCHES

X------- FROM BUS ------X AREA  VOLT            GEN    LOAD    SHUNT  X---------- TO BUS ----------X                     TRANSFORMER            RATING
  BUS# X-- NAME --X BASKV ZONE  PU/KV  ANGLE  MW/MVAR MW/MVAR MW/MVAR   BUS# X-- NAME --X BASKV AREA CKT   MW    MVAR   RATIO   ANGLE   AMPS   %  SET A

    14 BUS 14      138.00    1 1.0356  -15.6     0.0     14.9     0.0 ---------------------------------------------------------------------------------
                             1 142.91            0.0      5.0     0.0      9 BUS 9       138.00    1  1    -9.4   -3.3                    40
                                                                          13 BUS 13      138.00    1  1    -5.5   -1.7                    23
